1658343529.136352s 1 https://api.dandiarchive.org/api/zarr/e6e2ff92-607d-4692-b018-598136f6a7a7.zarr/0/0/0/15/4/116
1658343529.124413s 1 https://dandiarchive.s3.amazonaws.com/zarr/e6e2ff92-607d-4692-b018-598136f6a7a7/0/0/0/15/4/116?versionId=4a.MT3D_aLJGi93RTc5wLNaP14YCHrXv
